nct
 OpenBabel03222209303D

 27 28  0  0  1  0  0  0  0  0999 V2000
   31.3230   53.8060   55.7850 N   0  0  0  0  0  0  0  0  0  0  0  0
   31.7880   54.1420   54.5550 C   0  0  0  0  0  0  0  0  0  0  0  0
   31.9760   55.4790   54.1440 C   0  0  0  0  0  0  0  0  0  0  0  0
   31.6620   56.4740   55.0640 C   0  0  0  0  0  0  0  0  0  0  0  0
   31.1870   56.1520   56.3320 C   0  0  0  0  0  0  0  0  0  0  0  0
   31.0320   54.8030   56.6550 C   0  0  0  0  0  0  0  0  0  0  0  0
   33.8360   55.1600   52.6090 N   0  0  0  0  0  4  0  0  0  0  0  0
   32.4950   55.8130   52.7820 C   0  0  1  0  0  0  0  0  0  0  0  0
   31.7760   55.2300   51.6100 C   0  0  0  0  0  0  0  0  0  0  0  0
   32.7650   55.1300   50.4740 C   0  0  0  0  0  0  0  0  0  0  0  0
   34.1100   55.0510   51.1540 C   0  0  0  0  0  0  0  0  0  0  0  0
   34.7310   56.1790   53.1590 C   0  0  0  0  0  0  0  0  0  0  0  0
   32.0250   53.3510   53.8590 H   0  0  0  0  0  0  0  0  0  0  0  0
   31.7890   57.5110   54.7900 H   0  0  0  0  0  0  0  0  0  0  0  0
   30.9450   56.9250   57.0460 H   0  0  0  0  0  0  0  0  0  0  0  0
   30.6660   54.5440   57.6370 H   0  0  0  0  0  0  0  0  0  0  0  0
   33.9070   54.2740   53.0890 H   0  0  0  0  0  0  0  0  0  0  0  0
   32.5850   56.8930   52.6680 H   0  0  0  0  0  0  0  0  0  0  0  0
   30.9460   55.8760   51.3240 H   0  0  0  0  0  0  0  0  0  0  0  0
   31.4020   54.2380   51.8620 H   0  0  0  0  0  0  0  0  0  0  0  0
   32.5800   54.2350   49.8790 H   0  0  0  0  0  0  0  0  0  0  0  0
   32.7110   56.0190   49.8460 H   0  0  0  0  0  0  0  0  0  0  0  0
   34.7490   55.8710   50.8260 H   0  0  0  0  0  0  0  0  0  0  0  0
   34.5850   54.0950   50.9340 H   0  0  0  0  0  0  0  0  0  0  0  0
   35.7620   55.8300   53.0960 H   0  0  0  0  0  0  0  0  0  0  0  0
   34.6250   57.1020   52.5890 H   0  0  0  0  0  0  0  0  0  0  0  0
   34.4730   56.3640   54.2020 H   0  0  0  0  0  0  0  0  0  0  0  0
  1  6  1  0  0  0  0
  2  1  2  0  0  0  0
  3  2  1  0  0  0  0
  3  4  2  0  0  0  0
  4  5  1  0  0  0  0
  5  6  2  0  0  0  0
  5 15  1  0  0  0  0
  6 16  1  0  0  0  0
  7  8  1  0  0  0  0
  7 17  1  0  0  0  0
  7 12  1  0  0  0  0
  8 18  1  6  0  0  0
  8  3  1  0  0  0  0
  9 20  1  0  0  0  0
  9  8  1  0  0  0  0
 10 11  1  0  0  0  0
 10  9  1  0  0  0  0
 11  7  1  0  0  0  0
 12 27  1  0  0  0  0
 13  2  1  0  0  0  0
 14  4  1  0  0  0  0
 19  9  1  0  0  0  0
 21 10  1  0  0  0  0
 22 10  1  0  0  0  0
 23 11  1  0  0  0  0
 24 11  1  0  0  0  0
 25 12  1  0  0  0  0
 26 12  1  0  0  0  0
M  END
